Version 4
SHEET 1 880 680
WIRE 112 48 16 48
WIRE 272 48 192 48
WIRE 16 80 16 48
WIRE 272 80 272 48
WIRE 16 192 16 160
WIRE 272 192 272 144
WIRE 272 192 16 192
FLAG 16 192 0
SYMBOL voltage 16 64 R0
WINDOW 123 24 124 Left 2
WINDOW 39 0 0 Left 0
SYMATTR Value2 AC 1
SYMATTR InstName V1
SYMATTR Value ""
SYMBOL res 208 32 R90
WINDOW 0 0 56 VBottom 2
WINDOW 3 32 56 VTop 2
SYMATTR InstName R1
SYMATTR Value 1
SYMBOL cap 256 80 R0
SYMATTR InstName C1
SYMATTR Value 1.325e-3
TEXT 360 32 Left 2 !.ac oct 120 1 120e3
