Version 4
SHEET 1 880 680
WIRE 48 48 -32 48
WIRE 192 48 112 48
WIRE 352 48 272 48
WIRE 352 80 352 48
WIRE -32 96 -32 48
WIRE -32 208 -32 176
WIRE 352 208 352 160
WIRE 352 208 -32 208
FLAG -32 208 0
SYMBOL voltage -32 80 R0
WINDOW 123 24 124 Left 2
WINDOW 39 0 0 Left 0
SYMATTR InstName V1
SYMATTR Value ""
SYMATTR Value2 AC 10
SYMBOL cap 112 32 R90
WINDOW 0 0 32 VBottom 2
WINDOW 3 32 32 VTop 2
SYMATTR InstName C1
SYMATTR Value 6.8e-9
SYMBOL ind 288 32 R90
WINDOW 0 5 56 VBottom 2
WINDOW 3 32 56 VTop 2
SYMATTR InstName L1
SYMATTR Value 10e-3
SYMBOL res 336 64 R0
SYMATTR InstName R1
SYMATTR Value 300
TEXT 352 16 Left 2 !.ac oct 100 1e3 512e3
