Version 4
SHEET 1 880 680
WIRE 160 64 -32 64
WIRE 448 64 240 64
WIRE -32 128 -32 64
WIRE 448 128 448 64
WIRE -32 288 -32 208
WIRE 96 288 -32 288
WIRE 448 288 448 192
WIRE 448 288 96 288
FLAG 96 288 0
SYMBOL cap 432 128 R0
SYMATTR InstName C1
SYMATTR Value 10e-9
SYMBOL res 256 48 R90
WINDOW 0 0 56 VBottom 2
WINDOW 3 32 56 VTop 2
SYMATTR InstName R1
SYMATTR Value 5000
SYMBOL voltage -32 112 R0
WINDOW 123 24 124 Left 2
WINDOW 39 0 0 Left 0
SYMATTR InstName V1
SYMATTR Value ""
SYMATTR Value2 AC 1
TEXT 96 184 Left 2 !.ac oct 100 1 512e3
