Version 4
SHEET 1 880 680
WIRE -96 112 -144 112
WIRE 64 112 -16 112
WIRE 128 112 64 112
WIRE 256 112 208 112
WIRE 64 144 64 112
WIRE 256 144 256 112
WIRE -144 256 -144 112
WIRE 64 256 64 208
WIRE 64 256 -144 256
WIRE 256 256 256 224
WIRE 256 256 64 256
FLAG 64 256 0
SYMBOL cap 48 144 R0
SYMATTR InstName C1
SYMATTR Value 0.25
SYMBOL ind 224 96 R90
WINDOW 0 5 56 VBottom 2
WINDOW 3 32 56 VTop 2
SYMATTR InstName L1
SYMATTR Value 2
SYMBOL res 0 96 R90
WINDOW 0 0 56 VBottom 2
WINDOW 3 32 56 VTop 2
SYMATTR InstName R1
SYMATTR Value 4
SYMBOL voltage 256 128 R0
SYMATTR InstName V1
SYMATTR Value 6
TEXT -146 280 Left 2 !.tran 5
