Version 4
SHEET 1 880 680
WIRE 64 64 -32 64
WIRE 368 64 64 64
WIRE -32 144 -32 64
WIRE 176 144 64 144
WIRE 256 192 256 144
WIRE 272 192 256 192
WIRE 368 192 368 144
WIRE 368 192 352 192
WIRE 176 224 64 224
WIRE 256 224 256 192
WIRE 368 224 368 192
WIRE -32 304 -32 224
WIRE 64 304 -32 304
WIRE 368 304 64 304
WIRE 64 352 64 304
FLAG 64 352 0
FLAG 64 144 X
FLAG -32 64 A
FLAG -32 304 B
FLAG 352 192 Z
FLAG 272 192 Y
SYMBOL voltage -32 128 R0
WINDOW 123 0 0 Left 0
WINDOW 39 0 0 Left 0
SYMATTR InstName V1
SYMATTR Value 9
SYMBOL res 48 128 R0
SYMATTR InstName R1
SYMATTR Value 100
SYMBOL res 48 48 R0
SYMATTR InstName R2
SYMATTR Value 300
SYMBOL res 48 208 R0
SYMATTR InstName R3
SYMATTR Value 170
SYMBOL res 160 160 R270
WINDOW 0 32 56 VTop 2
WINDOW 3 0 56 VBottom 2
SYMATTR InstName R4
SYMATTR Value 3000
SYMBOL res 160 240 R270
WINDOW 0 32 56 VTop 2
WINDOW 3 0 56 VBottom 2
SYMATTR InstName R5
SYMATTR Value 1000
SYMBOL res 352 48 R0
SYMATTR InstName R6
SYMATTR Value 3300
SYMBOL res 352 208 R0
SYMATTR InstName R7
SYMATTR Value 1200
TEXT -154 290 Left 2 !.tran 10
