Version 4
SHEET 1 880 680
WIRE 208 112 160 112
WIRE 320 112 288 112
WIRE 160 160 160 112
WIRE 320 160 320 112
WIRE 160 272 160 240
WIRE 320 272 320 224
WIRE 320 272 160 272
FLAG 320 272 0
SYMBOL cap 304 160 R0
SYMATTR InstName C1
SYMATTR Value 16e-6
SYMBOL res 304 96 R90
WINDOW 0 0 56 VBottom 2
WINDOW 3 32 56 VTop 2
SYMATTR InstName R1
SYMATTR Value 15e3
SYMBOL voltage 160 144 R0
WINDOW 3 24 44 Left 2
WINDOW 123 0 0 Left 0
WINDOW 39 0 0 Left 0
SYMATTR Value 9
SYMATTR InstName V1
TEXT 360 80 Left 2 !.tran 2.4 startup
