Version 4
SHEET 1 880 680
WIRE 208 112 160 112
WIRE 320 112 288 112
WIRE 160 160 160 112
WIRE 320 160 320 112
WIRE 160 272 160 240
WIRE 320 272 320 240
WIRE 320 272 160 272
FLAG 320 272 0
SYMBOL res 192 128 R270
WINDOW 0 32 56 VTop 2
WINDOW 3 0 56 VBottom 2
SYMATTR InstName R1
SYMATTR Value 15e3
SYMBOL voltage 160 144 R0
WINDOW 3 24 44 Left 2
WINDOW 123 0 0 Left 0
WINDOW 39 0 0 Left 0
SYMATTR Value 7
SYMATTR InstName V1
SYMBOL ind 304 144 R0
SYMATTR InstName L1
SYMATTR Value 100e-3
TEXT 360 80 Left 2 !.tran 66.7us\n.ic i(L1) =0
