Version 4
SHEET 1 880 680
WIRE 96 96 48 96
WIRE 224 96 160 96
WIRE 352 96 304 96
WIRE 400 96 352 96
WIRE 528 96 480 96
WIRE 48 144 48 96
WIRE 352 144 352 96
WIRE 528 144 528 96
WIRE 48 288 48 224
WIRE 352 288 352 224
WIRE 352 288 48 288
WIRE 528 288 528 224
WIRE 528 288 352 288
FLAG 352 288 0
SYMBOL voltage 48 128 R0
WINDOW 123 0 0 Left 0
WINDOW 39 0 0 Left 0
SYMATTR InstName V1
SYMATTR Value SINE(0 5 20e3)
SYMBOL cap 160 80 R90
WINDOW 0 0 32 VBottom 2
WINDOW 3 32 32 VTop 2
SYMATTR InstName C1
SYMATTR Value 33e-9
SYMBOL ind 208 112 R270
WINDOW 0 32 56 VTop 2
WINDOW 3 5 56 VBottom 2
SYMATTR InstName L1
SYMATTR Value 10e-3
SYMBOL res 336 128 R0
SYMATTR InstName R2
SYMATTR Value 1e3
SYMBOL res 496 80 R90
WINDOW 0 0 56 VBottom 2
WINDOW 3 32 56 VTop 2
SYMATTR InstName R1
SYMATTR Value 2e3
SYMBOL voltage 528 128 R0
SYMATTR InstName V2
SYMATTR Value 9
TEXT 16 48 Left 2 !.tran 5e-3
