Version 4
SHEET 1 880 680
WIRE 64 96 -32 96
WIRE 208 96 144 96
WIRE -32 128 -32 96
WIRE 208 128 208 96
WIRE -32 240 -32 208
WIRE 208 240 208 192
WIRE 208 240 -32 240
FLAG 208 128 out
FLAG -32 240 0
SYMBOL voltage -32 112 R0
SYMATTR InstName V1
SYMATTR Value wavefile=Lab4Music.wav
SYMBOL res 160 80 R90
WINDOW 0 0 56 VBottom 2
WINDOW 3 32 56 VTop 2
SYMATTR InstName R1
SYMATTR Value 1
SYMBOL cap 192 128 R0
SYMATTR InstName C1
SYMATTR Value 1.325e-3
TEXT 216 56 Left 2 !.tran 22
TEXT 216 80 Left 2 !.wave "test.wav" 16 44.1k V(out)
