Version 4
SHEET 1 880 680
WIRE 96 64 32 64
WIRE 224 64 176 64
WIRE 32 112 32 64
WIRE 224 112 224 64
WIRE 32 256 32 192
WIRE 144 256 32 256
WIRE 224 256 224 192
WIRE 224 256 144 256
FLAG 144 256 0
SYMBOL voltage 32 96 R0
WINDOW 123 0 0 Left 0
WINDOW 39 0 0 Left 0
SYMATTR InstName V1
SYMATTR Value SINE(0 5 20e3)
SYMBOL ind 80 80 R270
WINDOW 0 32 56 VTop 2
WINDOW 3 5 56 VBottom 2
SYMATTR InstName L1
SYMATTR Value 10e-3
SYMBOL res 208 96 R0
SYMATTR InstName R1
SYMATTR Value 1e3
TEXT 240 24 Left 2 !.tran 5e-3
