Version 4
SHEET 1 880 680
WIRE 96 80 -16 80
WIRE 192 80 96 80
WIRE 336 80 272 80
WIRE 432 80 336 80
WIRE 592 80 512 80
WIRE -16 144 -16 80
WIRE 96 144 96 80
WIRE 336 144 336 80
WIRE 592 144 592 80
WIRE 336 256 336 224
WIRE -16 368 -16 224
WIRE 96 368 96 208
WIRE 96 368 -16 368
WIRE 208 368 96 368
WIRE 336 368 336 336
WIRE 336 368 208 368
WIRE 592 368 592 208
WIRE 592 368 336 368
FLAG 208 368 0
SYMBOL res -32 128 R0
SYMATTR InstName R1
SYMATTR Value 40
SYMBOL cap 80 144 R0
SYMATTR InstName C1
SYMATTR Value 1
SYMBOL res 288 64 R90
WINDOW 0 0 56 VBottom 2
WINDOW 3 32 56 VTop 2
SYMATTR InstName R2
SYMATTR Value 10
SYMBOL res 352 240 R180
WINDOW 0 36 76 Left 2
WINDOW 3 36 40 Left 2
SYMATTR InstName R3
SYMATTR Value 20
SYMBOL res 416 96 R270
WINDOW 0 32 56 VTop 2
WINDOW 3 0 56 VBottom 2
SYMATTR InstName R4
SYMATTR Value 50
SYMBOL cap 576 144 R0
SYMATTR InstName C2
SYMATTR Value 1
SYMBOL voltage 336 240 R0
SYMATTR InstName V1
SYMATTR Value 60
TEXT -34 378 Left 2 !.tran 10
