Version 4
SHEET 1 880 680
WIRE 112 48 16 48
WIRE 272 48 176 48
WIRE 416 48 272 48
WIRE 16 80 16 48
WIRE 272 80 272 48
WIRE 416 80 416 48
WIRE 16 192 16 160
WIRE 272 192 272 144
WIRE 272 192 16 192
WIRE 416 192 416 160
WIRE 416 192 272 192
FLAG 16 192 0
SYMBOL voltage 16 64 R0
WINDOW 123 24 124 Left 2
WINDOW 39 0 0 Left 0
SYMATTR Value2 AC 2
SYMATTR InstName V1
SYMATTR Value ""
SYMBOL cap 256 80 R0
SYMATTR InstName C1
SYMATTR Value 1e-6
SYMBOL res 400 64 R0
SYMATTR InstName R2
SYMATTR Value 300
SYMBOL cap 176 32 R90
WINDOW 0 0 32 VBottom 2
WINDOW 3 32 32 VTop 2
SYMATTR InstName C2
SYMATTR Value 2e-6
TEXT -248 32 Left 2 !.ac oct 120 1 1024e3
